P3R/DSS/Loads.dss
New Load.load_p3rlv1_1 conn=wye bus1=p3rlv1.1 kV=0.12 Vminpu=0.8 Vmaxpu=1.2 model=1 kW=2.1976836424562762 kvar=0.1051220183522544 Phases=1 yearly=com_kw_17157_pu

New Load.load_p3rlv1_2 conn=wye bus1=p3rlv1.2 kV=0.12 Vminpu=0.8 Vmaxpu=1.2 model=1 kW=2.1976836424562762 kvar=0.1051220183522544 Phases=1 yearly=com_kw_17157_pu

New Load.load_p3rlv2_1 conn=wye bus1=p3rlv2.1 kV=0.12 Vminpu=0.8 Vmaxpu=1.2 model=1 kW=2.1976836424562762 kvar=0.1051220183522544 Phases=1 yearly=com_kw_17157_pu

New Load.load_p3rlv2_2 conn=wye bus1=p3rlv2.2 kV=0.12 Vminpu=0.8 Vmaxpu=1.2 model=1 kW=2.1976836424562762 kvar=0.1051220183522544 Phases=1 yearly=com_kw_17157_pu

New Load.load_p3rlv3_1 conn=wye bus1=p3rlv3.1 kV=0.12 Vminpu=0.8 Vmaxpu=1.2 model=1 kW=1.9502888832917802 kvar=0.502907032927928 Phases=1 yearly=com_kw_32186_pu

New Load.load_p3rlv3_2 conn=wye bus1=p3rlv3.2 kV=0.12 Vminpu=0.8 Vmaxpu=1.2 model=1 kW=1.9502888832917802 kvar=0.502907032927928 Phases=1 yearly=com_kw_32186_pu

New Load.load_p3rlv4_1 conn=wye bus1=p3rlv4.1 kV=0.12 Vminpu=0.8 Vmaxpu=1.2 model=1 kW=2.1976836424562762 kvar=0.1051220183522544 Phases=1 yearly=com_kw_17157_pu

New Load.load_p3rlv4_2 conn=wye bus1=p3rlv4.2 kV=0.12 Vminpu=0.8 Vmaxpu=1.2 model=1 kW=2.1976836424562762 kvar=0.1051220183522544 Phases=1 yearly=com_kw_17157_pu

New Load.load_p3rlv5_1 conn=wye bus1=p3rlv5.1 kV=0.12 Vminpu=0.8 Vmaxpu=1.2 model=1 kW=2.499057743464556 kvar=0.3373788699823939 Phases=1 yearly=com_kw_41529_pu

New Load.load_p3rlv5_2 conn=wye bus1=p3rlv5.2 kV=0.12 Vminpu=0.8 Vmaxpu=1.2 model=1 kW=2.499057743464556 kvar=0.3373788699823939 Phases=1 yearly=com_kw_41529_pu

New Load.load_p3rlv6_1 conn=wye bus1=p3rlv6.1 kV=0.12 Vminpu=0.8 Vmaxpu=1.2 model=1 kW=7.204738765537915 kvar=1.3468389718673075 Phases=1 yearly=com_kw_16581_pu

New Load.load_p3rlv6_2 conn=wye bus1=p3rlv6.2 kV=0.12 Vminpu=0.8 Vmaxpu=1.2 model=1 kW=7.204738765537915 kvar=1.3468389718673075 Phases=1 yearly=com_kw_16581_pu

New Load.load_p3rlv7_1 conn=wye bus1=p3rlv7.1 kV=0.12 Vminpu=0.8 Vmaxpu=1.2 model=1 kW=3.658533491373756 kvar=0.5316075747972341 Phases=1 yearly=com_kw_33943_pu

New Load.load_p3rlv7_2 conn=wye bus1=p3rlv7.2 kV=0.12 Vminpu=0.8 Vmaxpu=1.2 model=1 kW=3.658533491373756 kvar=0.5316075747972341 Phases=1 yearly=com_kw_33943_pu

New Load.load_p3rlv8_1 conn=wye bus1=p3rlv8.1 kV=0.12 Vminpu=0.8 Vmaxpu=1.2 model=1 kW=3.4068206824033207 kvar=0.7675662276796525 Phases=1 yearly=com_kw_18314_pu

New Load.load_p3rlv8_2 conn=wye bus1=p3rlv8.2 kV=0.12 Vminpu=0.8 Vmaxpu=1.2 model=1 kW=3.4068206824033207 kvar=0.7675662276796525 Phases=1 yearly=com_kw_18314_pu

New Load.load_p3rlv9_1 conn=wye bus1=p3rlv9.1 kV=0.12 Vminpu=0.8 Vmaxpu=1.2 model=1 kW=20.497139928113135 kvar=4.843655985939276 Phases=1 yearly=res_kw_1769_pu

New Load.load_p3rlv9_2 conn=wye bus1=p3rlv9.2 kV=0.12 Vminpu=0.8 Vmaxpu=1.2 model=1 kW=20.497139928113135 kvar=4.843655985939276 Phases=1 yearly=res_kw_1769_pu

New Load.load_p3rlv10_1 conn=wye bus1=p3rlv10.1 kV=0.12 Vminpu=0.8 Vmaxpu=1.2 model=1 kW=3.299800530427192 kvar=0.3429945143852251 Phases=1 yearly=com_kw_33365_pu

New Load.load_p3rlv10_2 conn=wye bus1=p3rlv10.2 kV=0.12 Vminpu=0.8 Vmaxpu=1.2 model=1 kW=3.299800530427192 kvar=0.3429945143852251 Phases=1 yearly=com_kw_33365_pu

New Load.load_p3rlv12_1 conn=wye bus1=p3rlv12.1 kV=0.12 Vminpu=0.8 Vmaxpu=1.2 model=1 kW=2.892763602300674 kvar=0.6648734705927571 Phases=1 yearly=com_kw_33434_pu

New Load.load_p3rlv12_2 conn=wye bus1=p3rlv12.2 kV=0.12 Vminpu=0.8 Vmaxpu=1.2 model=1 kW=2.892763602300674 kvar=0.6648734705927571 Phases=1 yearly=com_kw_33434_pu

New Load.load_p3rlv13_1 conn=wye bus1=p3rlv13.1 kV=0.12 Vminpu=0.8 Vmaxpu=1.2 model=1 kW=5.611133182200907 kvar=0.07668264048246332 Phases=1 yearly=com_kw_1743_pu

New Load.load_p3rlv13_2 conn=wye bus1=p3rlv13.2 kV=0.12 Vminpu=0.8 Vmaxpu=1.2 model=1 kW=5.611133182200907 kvar=0.07668264048246332 Phases=1 yearly=com_kw_1743_pu

New Load.load_p3rlv14_1 conn=wye bus1=p3rlv14.1 kV=0.12 Vminpu=0.8 Vmaxpu=1.2 model=1 kW=1.6844632506969115 kvar=0.4071315730781585 Phases=1 yearly=com_kw_2361_pu

New Load.load_p3rlv14_2 conn=wye bus1=p3rlv14.2 kV=0.12 Vminpu=0.8 Vmaxpu=1.2 model=1 kW=1.6844632506969115 kvar=0.4071315730781585 Phases=1 yearly=com_kw_2361_pu

New Load.load_p3rlv17_1 conn=wye bus1=p3rlv17.1 kV=0.12 Vminpu=0.8 Vmaxpu=1.2 model=1 kW=1.6323867069620042 kvar=0.40255171211713736 Phases=1 yearly=com_kw_17825_pu

New Load.load_p3rlv17_2 conn=wye bus1=p3rlv17.2 kV=0.12 Vminpu=0.8 Vmaxpu=1.2 model=1 kW=1.6323867069620042 kvar=0.40255171211713736 Phases=1 yearly=com_kw_17825_pu

New Load.load_p3rlv19_1 conn=wye bus1=p3rlv19.1 kV=0.12 Vminpu=0.8 Vmaxpu=1.2 model=1 kW=1.8755168938707782 kvar=0.2009555085079469 Phases=1 yearly=com_kw_22700_pu

New Load.load_p3rlv19_2 conn=wye bus1=p3rlv19.2 kV=0.12 Vminpu=0.8 Vmaxpu=1.2 model=1 kW=1.8755168938707782 kvar=0.2009555085079469 Phases=1 yearly=com_kw_22700_pu

...